/*--------------------------------*- C++ -*----------------------------------*\
| =========                 |                                                 |
| \\      /  F ield         | OpenFOAM: The Open Source CFD Toolbox           |
|  \\    /   O peration     | Version:  v2212                                 |
|   \\  /    A nd           | Website:  www.openfoam.com                      |
|    \\/     M anipulation  |                                                 |
\*---------------------------------------------------------------------------*/
FoamFile
{
    version     2.0;
    format      ascii;
    class       dictionary;
    object      blockMeshDict;
}
// * * * * * * * * * * * * * * * * * * * * * * * * * * * * * * * * * * * * * //

scale   1;

xmin 0;
xmax 5.01;
ymin 0;
ymax 1.61;
zmin 0;
zmax 0.53;

vertices
(
    (0		0		0) // 0
    (5.01	0		0) // 1
    (5.01	1.61	0) // 2
    (0		1.61	0) // 3
    (0		0		0.53) // 4
    (5.01	0		0.53) // 5
    (5.01	1.61	0.53) // 6
    (0		1.61	0.53) // 7
    
);

blocks
(
    hex (0 1 2 3 4 5 6 7) (501 161 53) simpleGrading (1 1 1)      
);

edges
(
);

boundary
(
    defaultFaces
    {
        type empty;
		faces
        (
            (0 1 2 3)
            (4 5 6 7)
			(1 5 6 2)
			(0 4 7 3)
			(0 1 5 4)
			(3 2 6 7)
        );
    }
);


// ************************************************************************* //
