/*--------------------------------*- C++ -*----------------------------------*\
| =========                 |                                                 |
| \\      /  F ield         | OpenFOAM: The Open Source CFD Toolbox           |
|  \\    /   O peration     | Version:  v2212                                 |
|   \\  /    A nd           | Website:  www.openfoam.com                      |
|    \\/     M anipulation  |                                                 |
\*---------------------------------------------------------------------------*/
FoamFile
{
    version     2.0;
    format      ascii;
    class       dictionary;
    object      fvSchemes;
}
// * * * * * * * * * * * * * * * * * * * * * * * * * * * * * * * * * * * * * //

ddtSchemes
{
    default         Euler;
}

gradSchemes
{
    default         Gauss linear;
}

divSchemes
{
    div(rhoPhi,U)    Gauss limitedLinearV 1;
    div(phi,alpha)   Gauss vanLeer;
    div(phirb,alpha) Gauss linear;
    div(phi,k)       Gauss limitedLinear 1;
    div(phi,epsilon) Gauss limitedLinear 1;
   // div(phi,R)       Gauss upwind;
   // div(R)           Gauss linear;
    div(phi,nuTilda) Gauss upwind;
    div(((rho*nuEff)*dev2(T(grad(U))))) Gauss linear;
}

laplacianSchemes
{
    default         Gauss linear orthogonal;
}

interpolationSchemes
{
    default         linear;
}

snGradSchemes
{
    default			orthogonal;
	//default         corrected;
}


// ************************************************************************* //
