/*--------------------------------*- C++ -*----------------------------------*\
| =========                 |                                                 |
| \\      /  F ield         | OpenFOAM: The Open Source CFD Toolbox           |
|  \\    /   O peration     | Version:  2.2.1                                 |
|   \\  /    A nd           | Web:      www.OpenFOAM.org                      |
|    \\/     M anipulation  |                                                 |
\*---------------------------------------------------------------------------*/
FoamFile
{
    version     2.0;
    format      ascii;
    class       dictionary;
    object      surfaceFeatureExtractDict;
}
// * * * * * * * * * * * * * * * * * * * * * * * * * * * * * * * * * * * * * //

atmosphere.stl
{
    extractionMethod    extractFromSurface;
    extractFromSurfaceCoeffs
    {
        includedAngle   180;
    }
        writeObj                yes;
}

bottom.stl
{
    extractionMethod    extractFromSurface;
    extractFromSurfaceCoeffs
    {
        includedAngle   180;
    }
        writeObj                yes;
}
inlet.stl
{
    extractionMethod    extractFromSurface;
    extractFromSurfaceCoeffs
    {
        includedAngle   180;
    }
        writeObj                yes;
}
outlet.stl
{
    extractionMethod    extractFromSurface;
    extractFromSurfaceCoeffs
    {
        includedAngle   180;
    }
        writeObj                yes;
}
sidewalls.stl
{
    extractionMethod    extractFromSurface;
    extractFromSurfaceCoeffs
    {
        includedAngle   180;
    }
        writeObj                yes;
}
wall1.stl
{
    extractionMethod    extractFromSurface;
    extractFromSurfaceCoeffs
    {
        includedAngle   180;
    }
        writeObj                yes;
}


// ************************************************************************* //
